*SPICE NETLIST
* OPEN SOURCE CONVERSION PRELUDE (SPECTRE)

.SUBCKT sky130_fd_pr__special_nfet_pass d g s b
.PARAM w=1.0 l=1.0 mult=1
M0 d g s b npass l='l' w='w' mult='mult'
.ENDS

.SUBCKT sky130_fd_pr__special_nfet_latch d g s b
.PARAM w=1.0 l=1.0 mult=1
M0 d g s b npd l='l' w='w' mult='mult'
.ENDS

.SUBCKT sky130_fd_pr__nfet_01v8 d g s b
.PARAM w=1.0 l=1.0 mult=1
M0 d g s b nshort l='l' w='w' mult='mult'
.ENDS

.SUBCKT sky130_fd_pr__pfet_01v8 d g s b
.PARAM w=1.0 l=1.0 mult=1
M0 d g s b pshort l='l' w='w' mult='mult'
.ENDS

.SUBCKT sky130_fd_pr__special_pfet_pass d g s b
.PARAM w=1.0 l=1.0 mult=1
M0 d g s b ppu l='l' w='w' mult='mult'
.ENDS

.SUBCKT sky130_fd_pr__pfet_01v8_hvt d g s b
.PARAM w=1.0 l=1.0 mult=1
M0 d g s b phighvt l='l' w='w' mult='mult'
.ENDS

.SUBCKT sky130_fd_pr__nfet_01v8_lvt d g s b
.PARAM w=1.0 l=1.0 mult=1
M0 d g s b nlowvt l='l' w='w' mult='mult'
.ENDS
* circuit.Package sramgen_sramgen_sram_32x32m8w32_replica_v1
* Written by SpiceNetlister
* 

.SUBCKT hierarchical_decoder_nand_1 
+ gnd vdd a b y 

xn1 
+ x a gnd gnd 
+ sky130_fd_pr__nfet_01v8 
+ w='3.2' l='0.15' 

xn2 
+ y b x gnd 
+ sky130_fd_pr__nfet_01v8 
+ w='3.2' l='0.15' 

xp1 
+ y a vdd vdd 
+ sky130_fd_pr__pfet_01v8 
+ w='2.4' l='0.15' 

xp2 
+ y b vdd vdd 
+ sky130_fd_pr__pfet_01v8 
+ w='2.4' l='0.15' 

.ENDS

.SUBCKT hierarchical_decoder_inv_2 
+ gnd vdd din din_b 

xn 
+ din_b din gnd gnd 
+ sky130_fd_pr__nfet_01v8 
+ w='1.6' l='0.15' 

xp 
+ din_b din vdd vdd 
+ sky130_fd_pr__pfet_01v8 
+ w='2.4' l='0.15' 

.ENDS

.SUBCKT hierarchical_decoder 
+ vdd gnd addr[1] addr[0] addr_b[1] addr_b[0] decode[3] decode[2] decode[1] decode[0] decode_b[3] decode_b[2] decode_b[1] decode_b[0] 

xnand_3 
+ gnd vdd addr_b[1] addr_b[0] decode_b[0] 
+ hierarchical_decoder_nand_1 
* No parameters

xinv_4 
+ gnd vdd decode_b[0] decode[0] 
+ hierarchical_decoder_inv_2 
* No parameters

xnand_5 
+ gnd vdd addr_b[1] addr[0] decode_b[1] 
+ hierarchical_decoder_nand_1 
* No parameters

xinv_6 
+ gnd vdd decode_b[1] decode[1] 
+ hierarchical_decoder_inv_2 
* No parameters

xnand_7 
+ gnd vdd addr[1] addr_b[0] decode_b[2] 
+ hierarchical_decoder_nand_1 
* No parameters

xinv_8 
+ gnd vdd decode_b[2] decode[2] 
+ hierarchical_decoder_inv_2 
* No parameters

xnand_9 
+ gnd vdd addr[1] addr[0] decode_b[3] 
+ hierarchical_decoder_nand_1 
* No parameters

xinv_10 
+ gnd vdd decode_b[3] decode[3] 
+ hierarchical_decoder_inv_2 
* No parameters

.ENDS

.SUBCKT column_decoder_nand_1 
+ gnd vdd a b c y 

xn1 
+ x1 a gnd gnd 
+ sky130_fd_pr__nfet_01v8 
+ w='3.2' l='0.15' 

xn2 
+ x2 b x1 gnd 
+ sky130_fd_pr__nfet_01v8 
+ w='3.2' l='0.15' 

xn3 
+ y c x2 gnd 
+ sky130_fd_pr__nfet_01v8 
+ w='3.2' l='0.15' 

xp1 
+ y a vdd vdd 
+ sky130_fd_pr__pfet_01v8 
+ w='2.4' l='0.15' 

xp2 
+ y b vdd vdd 
+ sky130_fd_pr__pfet_01v8 
+ w='2.4' l='0.15' 

xp3 
+ y c vdd vdd 
+ sky130_fd_pr__pfet_01v8 
+ w='2.4' l='0.15' 

.ENDS

.SUBCKT column_decoder_inv_2 
+ gnd vdd din din_b 

xn 
+ din_b din gnd gnd 
+ sky130_fd_pr__nfet_01v8 
+ w='1.6' l='0.15' 

xp 
+ din_b din vdd vdd 
+ sky130_fd_pr__pfet_01v8 
+ w='2.4' l='0.15' 

.ENDS

.SUBCKT column_decoder 
+ vdd gnd addr[2] addr[1] addr[0] addr_b[2] addr_b[1] addr_b[0] decode[7] decode[6] decode[5] decode[4] decode[3] decode[2] decode[1] decode[0] decode_b[7] decode_b[6] decode_b[5] decode_b[4] decode_b[3] decode_b[2] decode_b[1] decode_b[0] 

xnand_3 
+ gnd vdd addr_b[2] addr_b[1] addr_b[0] decode_b[0] 
+ column_decoder_nand_1 
* No parameters

xinv_4 
+ gnd vdd decode_b[0] decode[0] 
+ column_decoder_inv_2 
* No parameters

xnand_5 
+ gnd vdd addr_b[2] addr_b[1] addr[0] decode_b[1] 
+ column_decoder_nand_1 
* No parameters

xinv_6 
+ gnd vdd decode_b[1] decode[1] 
+ column_decoder_inv_2 
* No parameters

xnand_7 
+ gnd vdd addr_b[2] addr[1] addr_b[0] decode_b[2] 
+ column_decoder_nand_1 
* No parameters

xinv_8 
+ gnd vdd decode_b[2] decode[2] 
+ column_decoder_inv_2 
* No parameters

xnand_9 
+ gnd vdd addr_b[2] addr[1] addr[0] decode_b[3] 
+ column_decoder_nand_1 
* No parameters

xinv_10 
+ gnd vdd decode_b[3] decode[3] 
+ column_decoder_inv_2 
* No parameters

xnand_11 
+ gnd vdd addr[2] addr_b[1] addr_b[0] decode_b[4] 
+ column_decoder_nand_1 
* No parameters

xinv_12 
+ gnd vdd decode_b[4] decode[4] 
+ column_decoder_inv_2 
* No parameters

xnand_13 
+ gnd vdd addr[2] addr_b[1] addr[0] decode_b[5] 
+ column_decoder_nand_1 
* No parameters

xinv_14 
+ gnd vdd decode_b[5] decode[5] 
+ column_decoder_inv_2 
* No parameters

xnand_15 
+ gnd vdd addr[2] addr[1] addr_b[0] decode_b[6] 
+ column_decoder_nand_1 
* No parameters

xinv_16 
+ gnd vdd decode_b[6] decode[6] 
+ column_decoder_inv_2 
* No parameters

xnand_17 
+ gnd vdd addr[2] addr[1] addr[0] decode_b[7] 
+ column_decoder_nand_1 
* No parameters

xinv_18 
+ gnd vdd decode_b[7] decode[7] 
+ column_decoder_inv_2 
* No parameters

.ENDS

.SUBCKT wordline_driver_and2_nand 
+ gnd vdd a b y 

xn1 
+ x a gnd gnd 
+ sky130_fd_pr__nfet_01v8 
+ w='3.2' l='0.15' 

xn2 
+ y b x gnd 
+ sky130_fd_pr__nfet_01v8 
+ w='3.2' l='0.15' 

xp1 
+ y a vdd vdd 
+ sky130_fd_pr__pfet_01v8 
+ w='2.4' l='0.15' 

xp2 
+ y b vdd vdd 
+ sky130_fd_pr__pfet_01v8 
+ w='2.4' l='0.15' 

.ENDS

.SUBCKT wordline_driver_and2_inv 
+ gnd vdd din din_b 

xn 
+ din_b din gnd gnd 
+ sky130_fd_pr__nfet_01v8 
+ w='1.6' l='0.15' 

xp 
+ din_b din vdd vdd 
+ sky130_fd_pr__pfet_01v8 
+ w='2.4' l='0.15' 

.ENDS

.SUBCKT wordline_driver_and2 
+ a b y vdd vss 

xnand 
+ vss vdd a b tmp 
+ wordline_driver_and2_nand 
* No parameters

xinv 
+ vss vdd tmp y 
+ wordline_driver_and2_inv 
* No parameters

.ENDS

.SUBCKT wordline_driver 
+ vdd vss din wl_en wl 

xand2 
+ din wl_en wl vdd vss 
+ wordline_driver_and2 
* No parameters

.ENDS

.SUBCKT wordline_driver_array 
+ vdd vss din[3] din[2] din[1] din[0] wl_en wl[3] wl[2] wl[1] wl[0] 

xwl_driver_0 
+ vdd vss din[0] wl_en wl[0] 
+ wordline_driver 
* No parameters

xwl_driver_1 
+ vdd vss din[1] wl_en wl[1] 
+ wordline_driver 
* No parameters

xwl_driver_2 
+ vdd vss din[2] wl_en wl[2] 
+ wordline_driver 
* No parameters

xwl_driver_3 
+ vdd vss din[3] wl_en wl[3] 
+ wordline_driver 
* No parameters

.ENDS

.SUBCKT bitcell_array 
+ vdd vss bl[255] bl[254] bl[253] bl[252] bl[251] bl[250] bl[249] bl[248] bl[247] bl[246] bl[245] bl[244] bl[243] bl[242] bl[241] bl[240] bl[239] bl[238] bl[237] bl[236] bl[235] bl[234] bl[233] bl[232] bl[231] bl[230] bl[229] bl[228] bl[227] bl[226] bl[225] bl[224] bl[223] bl[222] bl[221] bl[220] bl[219] bl[218] bl[217] bl[216] bl[215] bl[214] bl[213] bl[212] bl[211] bl[210] bl[209] bl[208] bl[207] bl[206] bl[205] bl[204] bl[203] bl[202] bl[201] bl[200] bl[199] bl[198] bl[197] bl[196] bl[195] bl[194] bl[193] bl[192] bl[191] bl[190] bl[189] bl[188] bl[187] bl[186] bl[185] bl[184] bl[183] bl[182] bl[181] bl[180] bl[179] bl[178] bl[177] bl[176] bl[175] bl[174] bl[173] bl[172] bl[171] bl[170] bl[169] bl[168] bl[167] bl[166] bl[165] bl[164] bl[163] bl[162] bl[161] bl[160] bl[159] bl[158] bl[157] bl[156] bl[155] bl[154] bl[153] bl[152] bl[151] bl[150] bl[149] bl[148] bl[147] bl[146] bl[145] bl[144] bl[143] bl[142] bl[141] bl[140] bl[139] bl[138] bl[137] bl[136] bl[135] bl[134] bl[133] bl[132] bl[131] bl[130] bl[129] bl[128] bl[127] bl[126] bl[125] bl[124] bl[123] bl[122] bl[121] bl[120] bl[119] bl[118] bl[117] bl[116] bl[115] bl[114] bl[113] bl[112] bl[111] bl[110] bl[109] bl[108] bl[107] bl[106] bl[105] bl[104] bl[103] bl[102] bl[101] bl[100] bl[99] bl[98] bl[97] bl[96] bl[95] bl[94] bl[93] bl[92] bl[91] bl[90] bl[89] bl[88] bl[87] bl[86] bl[85] bl[84] bl[83] bl[82] bl[81] bl[80] bl[79] bl[78] bl[77] bl[76] bl[75] bl[74] bl[73] bl[72] bl[71] bl[70] bl[69] bl[68] bl[67] bl[66] bl[65] bl[64] bl[63] bl[62] bl[61] bl[60] bl[59] bl[58] bl[57] bl[56] bl[55] bl[54] bl[53] bl[52] bl[51] bl[50] bl[49] bl[48] bl[47] bl[46] bl[45] bl[44] bl[43] bl[42] bl[41] bl[40] bl[39] bl[38] bl[37] bl[36] bl[35] bl[34] bl[33] bl[32] bl[31] bl[30] bl[29] bl[28] bl[27] bl[26] bl[25] bl[24] bl[23] bl[22] bl[21] bl[20] bl[19] bl[18] bl[17] bl[16] bl[15] bl[14] bl[13] bl[12] bl[11] bl[10] bl[9] bl[8] bl[7] bl[6] bl[5] bl[4] bl[3] bl[2] bl[1] bl[0] br[255] br[254] br[253] br[252] br[251] br[250] br[249] br[248] br[247] br[246] br[245] br[244] br[243] br[242] br[241] br[240] br[239] br[238] br[237] br[236] br[235] br[234] br[233] br[232] br[231] br[230] br[229] br[228] br[227] br[226] br[225] br[224] br[223] br[222] br[221] br[220] br[219] br[218] br[217] br[216] br[215] br[214] br[213] br[212] br[211] br[210] br[209] br[208] br[207] br[206] br[205] br[204] br[203] br[202] br[201] br[200] br[199] br[198] br[197] br[196] br[195] br[194] br[193] br[192] br[191] br[190] br[189] br[188] br[187] br[186] br[185] br[184] br[183] br[182] br[181] br[180] br[179] br[178] br[177] br[176] br[175] br[174] br[173] br[172] br[171] br[170] br[169] br[168] br[167] br[166] br[165] br[164] br[163] br[162] br[161] br[160] br[159] br[158] br[157] br[156] br[155] br[154] br[153] br[152] br[151] br[150] br[149] br[148] br[147] br[146] br[145] br[144] br[143] br[142] br[141] br[140] br[139] br[138] br[137] br[136] br[135] br[134] br[133] br[132] br[131] br[130] br[129] br[128] br[127] br[126] br[125] br[124] br[123] br[122] br[121] br[120] br[119] br[118] br[117] br[116] br[115] br[114] br[113] br[112] br[111] br[110] br[109] br[108] br[107] br[106] br[105] br[104] br[103] br[102] br[101] br[100] br[99] br[98] br[97] br[96] br[95] br[94] br[93] br[92] br[91] br[90] br[89] br[88] br[87] br[86] br[85] br[84] br[83] br[82] br[81] br[80] br[79] br[78] br[77] br[76] br[75] br[74] br[73] br[72] br[71] br[70] br[69] br[68] br[67] br[66] br[65] br[64] br[63] br[62] br[61] br[60] br[59] br[58] br[57] br[56] br[55] br[54] br[53] br[52] br[51] br[50] br[49] br[48] br[47] br[46] br[45] br[44] br[43] br[42] br[41] br[40] br[39] br[38] br[37] br[36] br[35] br[34] br[33] br[32] br[31] br[30] br[29] br[28] br[27] br[26] br[25] br[24] br[23] br[22] br[21] br[20] br[19] br[18] br[17] br[16] br[15] br[14] br[13] br[12] br[11] br[10] br[9] br[8] br[7] br[6] br[5] br[4] br[3] br[2] br[1] br[0] wl[3] wl[2] wl[1] wl[0] vnb vpb rbl rbr 

xbitcell_0_0 
+ vdd vdd vdd vss vss vnb vpb 
+ sram_sp_cell 
* No parameters

xbitcell_0_1 
+ rbl rbr vdd vss vss vnb vpb 
+ sram_sp_cell 
* No parameters

xbitcell_0_2 
+ bl[0] br[0] vdd vss vss vnb vpb 
+ sram_sp_cell 
* No parameters

xbitcell_0_3 
+ bl[1] br[1] vdd vss vss vnb vpb 
+ sram_sp_cell 
* No parameters

xbitcell_0_4 
+ bl[2] br[2] vdd vss vss vnb vpb 
+ sram_sp_cell 
* No parameters

xbitcell_0_5 
+ bl[3] br[3] vdd vss vss vnb vpb 
+ sram_sp_cell 
* No parameters

xbitcell_0_6 
+ bl[4] br[4] vdd vss vss vnb vpb 
+ sram_sp_cell 
* No parameters

xbitcell_0_7 
+ bl[5] br[5] vdd vss vss vnb vpb 
+ sram_sp_cell 
* No parameters

xbitcell_0_8 
+ bl[6] br[6] vdd vss vss vnb vpb 
+ sram_sp_cell 
* No parameters

xbitcell_0_9 
+ bl[7] br[7] vdd vss vss vnb vpb 
+ sram_sp_cell 
* No parameters

xbitcell_0_10 
+ bl[8] br[8] vdd vss vss vnb vpb 
+ sram_sp_cell 
* No parameters

xbitcell_0_11 
+ bl[9] br[9] vdd vss vss vnb vpb 
+ sram_sp_cell 
* No parameters

xbitcell_0_12 
+ bl[10] br[10] vdd vss vss vnb vpb 
+ sram_sp_cell 
* No parameters

xbitcell_0_13 
+ bl[11] br[11] vdd vss vss vnb vpb 
+ sram_sp_cell 
* No parameters

xbitcell_0_14 
+ bl[12] br[12] vdd vss vss vnb vpb 
+ sram_sp_cell 
* No parameters

xbitcell_0_15 
+ bl[13] br[13] vdd vss vss vnb vpb 
+ sram_sp_cell 
* No parameters

xbitcell_0_16 
+ bl[14] br[14] vdd vss vss vnb vpb 
+ sram_sp_cell 
* No parameters

xbitcell_0_17 
+ bl[15] br[15] vdd vss vss vnb vpb 
+ sram_sp_cell 
* No parameters

xbitcell_0_18 
+ bl[16] br[16] vdd vss vss vnb vpb 
+ sram_sp_cell 
* No parameters

xbitcell_0_19 
+ bl[17] br[17] vdd vss vss vnb vpb 
+ sram_sp_cell 
* No parameters

xbitcell_0_20 
+ bl[18] br[18] vdd vss vss vnb vpb 
+ sram_sp_cell 
* No parameters

xbitcell_0_21 
+ bl[19] br[19] vdd vss vss vnb vpb 
+ sram_sp_cell 
* No parameters

xbitcell_0_22 
+ bl[20] br[20] vdd vss vss vnb vpb 
+ sram_sp_cell 
* No parameters

xbitcell_0_23 
+ bl[21] br[21] vdd vss vss vnb vpb 
+ sram_sp_cell 
* No parameters

xbitcell_0_24 
+ bl[22] br[22] vdd vss vss vnb vpb 
+ sram_sp_cell 
* No parameters

xbitcell_0_25 
+ bl[23] br[23] vdd vss vss vnb vpb 
+ sram_sp_cell 
* No parameters

xbitcell_0_26 
+ bl[24] br[24] vdd vss vss vnb vpb 
+ sram_sp_cell 
* No parameters

xbitcell_0_27 
+ bl[25] br[25] vdd vss vss vnb vpb 
+ sram_sp_cell 
* No parameters

xbitcell_0_28 
+ bl[26] br[26] vdd vss vss vnb vpb 
+ sram_sp_cell 
* No parameters

xbitcell_0_29 
+ bl[27] br[27] vdd vss vss vnb vpb 
+ sram_sp_cell 
* No parameters

xbitcell_0_30 
+ bl[28] br[28] vdd vss vss vnb vpb 
+ sram_sp_cell 
* No parameters

xbitcell_0_31 
+ bl[29] br[29] vdd vss vss vnb vpb 
+ sram_sp_cell 
* No parameters

xbitcell_0_32 
+ bl[30] br[30] vdd vss vss vnb vpb 
+ sram_sp_cell 
* No parameters

xbitcell_0_33 
+ bl[31] br[31] vdd vss vss vnb vpb 
+ sram_sp_cell 
* No parameters

xbitcell_0_34 
+ bl[32] br[32] vdd vss vss vnb vpb 
+ sram_sp_cell 
* No parameters

xbitcell_0_35 
+ bl[33] br[33] vdd vss vss vnb vpb 
+ sram_sp_cell 
* No parameters

xbitcell_0_36 
+ bl[34] br[34] vdd vss vss vnb vpb 
+ sram_sp_cell 
* No parameters

xbitcell_0_37 
+ bl[35] br[35] vdd vss vss vnb vpb 
+ sram_sp_cell 
* No parameters

xbitcell_0_38 
+ bl[36] br[36] vdd vss vss vnb vpb 
+ sram_sp_cell 
* No parameters

xbitcell_0_39 
+ bl[37] br[37] vdd vss vss vnb vpb 
+ sram_sp_cell 
* No parameters

xbitcell_0_40 
+ bl[38] br[38] vdd vss vss vnb vpb 
+ sram_sp_cell 
* No parameters

xbitcell_0_41 
+ bl[39] br[39] vdd vss vss vnb vpb 
+ sram_sp_cell 
* No parameters

xbitcell_0_42 
+ bl[40] br[40] vdd vss vss vnb vpb 
+ sram_sp_cell 
* No parameters

xbitcell_0_43 
+ bl[41] br[41] vdd vss vss vnb vpb 
+ sram_sp_cell 
* No parameters

xbitcell_0_44 
+ bl[42] br[42] vdd vss vss vnb vpb 
+ sram_sp_cell 
* No parameters

xbitcell_0_45 
+ bl[43] br[43] vdd vss vss vnb vpb 
+ sram_sp_cell 
* No parameters

xbitcell_0_46 
+ bl[44] br[44] vdd vss vss vnb vpb 
+ sram_sp_cell 
* No parameters

xbitcell_0_47 
+ bl[45] br[45] vdd vss vss vnb vpb 
+ sram_sp_cell 
* No parameters

xbitcell_0_48 
+ bl[46] br[46] vdd vss vss vnb vpb 
+ sram_sp_cell 
* No parameters

xbitcell_0_49 
+ bl[47] br[47] vdd vss vss vnb vpb 
+ sram_sp_cell 
* No parameters

xbitcell_0_50 
+ bl[48] br[48] vdd vss vss vnb vpb 
+ sram_sp_cell 
* No parameters

xbitcell_0_51 
+ bl[49] br[49] vdd vss vss vnb vpb 
+ sram_sp_cell 
* No parameters

xbitcell_0_52 
+ bl[50] br[50] vdd vss vss vnb vpb 
+ sram_sp_cell 
* No parameters

xbitcell_0_53 
+ bl[51] br[51] vdd vss vss vnb vpb 
+ sram_sp_cell 
* No parameters

xbitcell_0_54 
+ bl[52] br[52] vdd vss vss vnb vpb 
+ sram_sp_cell 
* No parameters

xbitcell_0_55 
+ bl[53] br[53] vdd vss vss vnb vpb 
+ sram_sp_cell 
* No parameters

xbitcell_0_56 
+ bl[54] br[54] vdd vss vss vnb vpb 
+ sram_sp_cell 
* No parameters

xbitcell_0_57 
+ bl[55] br[55] vdd vss vss vnb vpb 
+ sram_sp_cell 
* No parameters

xbitcell_0_58 
+ bl[56] br[56] vdd vss vss vnb vpb 
+ sram_sp_cell 
* No parameters

xbitcell_0_59 
+ bl[57] br[57] vdd vss vss vnb vpb 
+ sram_sp_cell 
* No parameters

xbitcell_0_60 
+ bl[58] br[58] vdd vss vss vnb vpb 
+ sram_sp_cell 
* No parameters

xbitcell_0_61 
+ bl[59] br[59] vdd vss vss vnb vpb 
+ sram_sp_cell 
* No parameters

xbitcell_0_62 
+ bl[60] br[60] vdd vss vss vnb vpb 
+ sram_sp_cell 
* No parameters

xbitcell_0_63 
+ bl[61] br[61] vdd vss vss vnb vpb 
+ sram_sp_cell 
* No parameters

xbitcell_0_64 
+ bl[62] br[62] vdd vss vss vnb vpb 
+ sram_sp_cell 
* No parameters

xbitcell_0_65 
+ bl[63] br[63] vdd vss vss vnb vpb 
+ sram_sp_cell 
* No parameters

xbitcell_0_66 
+ bl[64] br[64] vdd vss vss vnb vpb 
+ sram_sp_cell 
* No parameters

xbitcell_0_67 
+ bl[65] br[65] vdd vss vss vnb vpb 
+ sram_sp_cell 
* No parameters

xbitcell_0_68 
+ bl[66] br[66] vdd vss vss vnb vpb 
+ sram_sp_cell 
* No parameters

xbitcell_0_69 
+ bl[67] br[67] vdd vss vss vnb vpb 
+ sram_sp_cell 
* No parameters

xbitcell_0_70 
+ bl[68] br[68] vdd vss vss vnb vpb 
+ sram_sp_cell 
* No parameters

xbitcell_0_71 
+ bl[69] br[69] vdd vss vss vnb vpb 
+ sram_sp_cell 
* No parameters

xbitcell_0_72 
+ bl[70] br[70] vdd vss vss vnb vpb 
+ sram_sp_cell 
* No parameters

xbitcell_0_73 
+ bl[71] br[71] vdd vss vss vnb vpb 
+ sram_sp_cell 
* No parameters

xbitcell_0_74 
+ bl[72] br[72] vdd vss vss vnb vpb 
+ sram_sp_cell 
* No parameters

xbitcell_0_75 
+ bl[73] br[73] vdd vss vss vnb vpb 
+ sram_sp_cell 
* No parameters

xbitcell_0_76 
+ bl[74] br[74] vdd vss vss vnb vpb 
+ sram_sp_cell 
* No parameters

xbitcell_0_77 
+ bl[75] br[75] vdd vss vss vnb vpb 
+ sram_sp_cell 
* No parameters

xbitcell_0_78 
+ bl[76] br[76] vdd vss vss vnb vpb 
+ sram_sp_cell 
* No parameters

xbitcell_0_79 
+ bl[77] br[77] vdd vss vss vnb vpb 
+ sram_sp_cell 
* No parameters

xbitcell_0_80 
+ bl[78] br[78] vdd vss vss vnb vpb 
+ sram_sp_cell 
* No parameters

xbitcell_0_81 
+ bl[79] br[79] vdd vss vss vnb vpb 
+ sram_sp_cell 
* No parameters

xbitcell_0_82 
+ bl[80] br[80] vdd vss vss vnb vpb 
+ sram_sp_cell 
* No parameters

xbitcell_0_83 
+ bl[81] br[81] vdd vss vss vnb vpb 
+ sram_sp_cell 
* No parameters

xbitcell_0_84 
+ bl[82] br[82] vdd vss vss vnb vpb 
+ sram_sp_cell 
* No parameters

xbitcell_0_85 
+ bl[83] br[83] vdd vss vss vnb vpb 
+ sram_sp_cell 
* No parameters

xbitcell_0_86 
+ bl[84] br[84] vdd vss vss vnb vpb 
+ sram_sp_cell 
* No parameters

xbitcell_0_87 
+ bl[85] br[85] vdd vss vss vnb vpb 
+ sram_sp_cell 
* No parameters

xbitcell_0_88 
+ bl[86] br[86] vdd vss vss vnb vpb 
+ sram_sp_cell 
* No parameters

xbitcell_0_89 
+ bl[87] br[87] vdd vss vss vnb vpb 
+ sram_sp_cell 
* No parameters

xbitcell_0_90 
+ bl[88] br[88] vdd vss vss vnb vpb 
+ sram_sp_cell 
* No parameters

xbitcell_0_91 
+ bl[89] br[89] vdd vss vss vnb vpb 
+ sram_sp_cell 
* No parameters

xbitcell_0_92 
+ bl[90] br[90] vdd vss vss vnb vpb 
+ sram_sp_cell 
* No parameters

xbitcell_0_93 
+ bl[91] br[91] vdd vss vss vnb vpb 
+ sram_sp_cell 
* No parameters

xbitcell_0_94 
+ bl[92] br[92] vdd vss vss vnb vpb 
+ sram_sp_cell 
* No parameters

xbitcell_0_95 
+ bl[93] br[93] vdd vss vss vnb vpb 
+ sram_sp_cell 
* No parameters

xbitcell_0_96 
+ bl[94] br[94] vdd vss vss vnb vpb 
+ sram_sp_cell 
* No parameters

xbitcell_0_97 
+ bl[95] br[95] vdd vss vss vnb vpb 
+ sram_sp_cell 
* No parameters

xbitcell_0_98 
+ bl[96] br[96] vdd vss vss vnb vpb 
+ sram_sp_cell 
* No parameters

xbitcell_0_99 
+ bl[97] br[97] vdd vss vss vnb vpb 
+ sram_sp_cell 
* No parameters

xbitcell_0_100 
+ bl[98] br[98] vdd vss vss vnb vpb 
+ sram_sp_cell 
* No parameters

xbitcell_0_101 
+ bl[99] br[99] vdd vss vss vnb vpb 
+ sram_sp_cell 
* No parameters

xbitcell_0_102 
+ bl[100] br[100] vdd vss vss vnb vpb 
+ sram_sp_cell 
* No parameters

xbitcell_0_103 
+ bl[101] br[101] vdd vss vss vnb vpb 
+ sram_sp_cell 
* No parameters

xbitcell_0_104 
+ bl[102] br[102] vdd vss vss vnb vpb 
+ sram_sp_cell 
* No parameters

xbitcell_0_105 
+ bl[103] br[103] vdd vss vss vnb vpb 
+ sram_sp_cell 
* No parameters

xbitcell_0_106 
+ bl[104] br[104] vdd vss vss vnb vpb 
+ sram_sp_cell 
* No parameters

xbitcell_0_107 
+ bl[105] br[105] vdd vss vss vnb vpb 
+ sram_sp_cell 
* No parameters

xbitcell_0_108 
+ bl[106] br[106] vdd vss vss vnb vpb 
+ sram_sp_cell 
* No parameters

xbitcell_0_109 
+ bl[107] br[107] vdd vss vss vnb vpb 
+ sram_sp_cell 
* No parameters

xbitcell_0_110 
+ bl[108] br[108] vdd vss vss vnb vpb 
+ sram_sp_cell 
* No parameters

xbitcell_0_111 
+ bl[109] br[109] vdd vss vss vnb vpb 
+ sram_sp_cell 
* No parameters

xbitcell_0_112 
+ bl[110] br[110] vdd vss vss vnb vpb 
+ sram_sp_cell 
* No parameters

xbitcell_0_113 
+ bl[111] br[111] vdd vss vss vnb vpb 
+ sram_sp_cell 
* No parameters

xbitcell_0_114 
+ bl[112] br[112] vdd vss vss vnb vpb 
+ sram_sp_cell 
* No parameters

xbitcell_0_115 
+ bl[113] br[113] vdd vss vss vnb vpb 
+ sram_sp_cell 
* No parameters

xbitcell_0_116 
+ bl[114] br[114] vdd vss vss vnb vpb 
+ sram_sp_cell 
* No parameters

xbitcell_0_117 
+ bl[115] br[115] vdd vss vss vnb vpb 
+ sram_sp_cell 
* No parameters

xbitcell_0_118 
+ bl[116] br[116] vdd vss vss vnb vpb 
+ sram_sp_cell 
* No parameters

xbitcell_0_119 
+ bl[117] br[117] vdd vss vss vnb vpb 
+ sram_sp_cell 
* No parameters

xbitcell_0_120 
+ bl[118] br[118] vdd vss vss vnb vpb 
+ sram_sp_cell 
* No parameters

xbitcell_0_121 
+ bl[119] br[119] vdd vss vss vnb vpb 
+ sram_sp_cell 
* No parameters

xbitcell_0_122 
+ bl[120] br[120] vdd vss vss vnb vpb 
+ sram_sp_cell 
* No parameters

xbitcell_0_123 
+ bl[121] br[121] vdd vss vss vnb vpb 
+ sram_sp_cell 
* No parameters

xbitcell_0_124 
+ bl[122] br[122] vdd vss vss vnb vpb 
+ sram_sp_cell 
* No parameters

xbitcell_0_125 
+ bl[123] br[123] vdd vss vss vnb vpb 
+ sram_sp_cell 
* No parameters

xbitcell_0_126 
+ bl[124] br[124] vdd vss vss vnb vpb 
+ sram_sp_cell 
* No parameters

xbitcell_0_127 
+ bl[125] br[125] vdd vss vss vnb vpb 
+ sram_sp_cell 
* No parameters

xbitcell_0_128 
+ bl[126] br[126] vdd vss vss vnb vpb 
+ sram_sp_cell 
* No parameters

xbitcell_0_129 
+ bl[127] br[127] vdd vss vss vnb vpb 
+ sram_sp_cell 
* No parameters

xbitcell_0_130 
+ bl[128] br[128] vdd vss vss vnb vpb 
+ sram_sp_cell 
* No parameters

xbitcell_0_131 
+ bl[129] br[129] vdd vss vss vnb vpb 
+ sram_sp_cell 
* No parameters

xbitcell_0_132 
+ bl[130] br[130] vdd vss vss vnb vpb 
+ sram_sp_cell 
* No parameters

xbitcell_0_133 
+ bl[131] br[131] vdd vss vss vnb vpb 
+ sram_sp_cell 
* No parameters

xbitcell_0_134 
+ bl[132] br[132] vdd vss vss vnb vpb 
+ sram_sp_cell 
* No parameters

xbitcell_0_135 
+ bl[133] br[133] vdd vss vss vnb vpb 
+ sram_sp_cell 
* No parameters

xbitcell_0_136 
+ bl[134] br[134] vdd vss vss vnb vpb 
+ sram_sp_cell 
* No parameters

xbitcell_0_137 
+ bl[135] br[135] vdd vss vss vnb vpb 
+ sram_sp_cell 
* No parameters

xbitcell_0_138 
+ bl[136] br[136] vdd vss vss vnb vpb 
+ sram_sp_cell 
* No parameters

xbitcell_0_139 
+ bl[137] br[137] vdd vss vss vnb vpb 
+ sram_sp_cell 
* No parameters

xbitcell_0_140 
+ bl[138] br[138] vdd vss vss vnb vpb 
+ sram_sp_cell 
* No parameters

xbitcell_0_141 
+ bl[139] br[139] vdd vss vss vnb vpb 
+ sram_sp_cell 
* No parameters

xbitcell_0_142 
+ bl[140] br[140] vdd vss vss vnb vpb 
+ sram_sp_cell 
* No parameters

xbitcell_0_143 
+ bl[141] br[141] vdd vss vss vnb vpb 
+ sram_sp_cell 
* No parameters

xbitcell_0_144 
+ bl[142] br[142] vdd vss vss vnb vpb 
+ sram_sp_cell 
* No parameters

xbitcell_0_145 
+ bl[143] br[143] vdd vss vss vnb vpb 
+ sram_sp_cell 
* No parameters

xbitcell_0_146 
+ bl[144] br[144] vdd vss vss vnb vpb 
+ sram_sp_cell 
* No parameters

xbitcell_0_147 
+ bl[145] br[145] vdd vss vss vnb vpb 
+ sram_sp_cell 
* No parameters

xbitcell_0_148 
+ bl[146] br[146] vdd vss vss vnb vpb 
+ sram_sp_cell 
* No parameters

xbitcell_0_149 
+ bl[147] br[147] vdd vss vss vnb vpb 
+ sram_sp_cell 
* No parameters

xbitcell_0_150 
+ bl[148] br[148] vdd vss vss vnb vpb 
+ sram_sp_cell 
* No parameters

xbitcell_0_151 
+ bl[149] br[149] vdd vss vss vnb vpb 
+ sram_sp_cell 
* No parameters

xbitcell_0_152 
+ bl[150] br[150] vdd vss vss vnb vpb 
+ sram_sp_cell 
* No parameters

xbitcell_0_153 
+ bl[151] br[151] vdd vss vss vnb vpb 
+ sram_sp_cell 
* No parameters

xbitcell_0_154 
+ bl[152] br[152] vdd vss vss vnb vpb 
+ sram_sp_cell 
* No parameters

xbitcell_0_155 
+ bl[153] br[153] vdd vss vss vnb vpb 
+ sram_sp_cell 
* No parameters

xbitcell_0_156 
+ bl[154] br[154] vdd vss vss vnb vpb 
+ sram_sp_cell 
* No parameters

xbitcell_0_157 
+ bl[155] br[155] vdd vss vss vnb vpb 
+ sram_sp_cell 
* No parameters

xbitcell_0_158 
+ bl[156] br[156] vdd vss vss vnb vpb 
+ sram_sp_cell 
* No parameters

xbitcell_0_159 
+ bl[157] br[157] vdd vss vss vnb vpb 
+ sram_sp_cell 
* No parameters

xbitcell_0_160 
+ bl[158] br[158] vdd vss vss vnb vpb 
+ sram_sp_cell 
* No parameters

xbitcell_0_161 
+ bl[159] br[159] vdd vss vss vnb vpb 
+ sram_sp_cell 
* No parameters

xbitcell_0_162 
+ bl[160] br[160] vdd vss vss vnb vpb 
+ sram_sp_cell 
* No parameters

xbitcell_0_163 
+ bl[161] br[161] vdd vss vss vnb vpb 
+ sram_sp_cell 
* No parameters

xbitcell_0_164 
+ bl[162] br[162] vdd vss vss vnb vpb 
+ sram_sp_cell 
* No parameters

xbitcell_0_165 
+ bl[163] br[163] vdd vss vss vnb vpb 
+ sram_sp_cell 
* No parameters

xbitcell_0_166 
+ bl[164] br[164] vdd vss vss vnb vpb 
+ sram_sp_cell 
* No parameters

xbitcell_0_167 
+ bl[165] br[165] vdd vss vss vnb vpb 
+ sram_sp_cell 
* No parameters

xbitcell_0_168 
+ bl[166] br[166] vdd vss vss vnb vpb 
+ sram_sp_cell 
* No parameters

xbitcell_0_169 
+ bl[167] br[167] vdd vss vss vnb vpb 
+ sram_sp_cell 
* No parameters

xbitcell_0_170 
+ bl[168] br[168] vdd vss vss vnb vpb 
+ sram_sp_cell 
* No parameters

xbitcell_0_171 
+ bl[169] br[169] vdd vss vss vnb vpb 
+ sram_sp_cell 
* No parameters

xbitcell_0_172 
+ bl[170] br[170] vdd vss vss vnb vpb 
+ sram_sp_cell 
* No parameters

xbitcell_0_173 
+ bl[171] br[171] vdd vss vss vnb vpb 
+ sram_sp_cell 
* No parameters

xbitcell_0_174 
+ bl[172] br[172] vdd vss vss vnb vpb 
+ sram_sp_cell 
* No parameters

xbitcell_0_175 
+ bl[173] br[173] vdd vss vss vnb vpb 
+ sram_sp_cell 
* No parameters

xbitcell_0_176 
+ bl[174] br[174] vdd vss vss vnb vpb 
+ sram_sp_cell 
* No parameters

xbitcell_0_177 
+ bl[175] br[175] vdd vss vss vnb vpb 
+ sram_sp_cell 
* No parameters

xbitcell_0_178 
+ bl[176] br[176] vdd vss vss vnb vpb 
+ sram_sp_cell 
* No parameters

xbitcell_0_179 
+ bl[177] br[177] vdd vss vss vnb vpb 
+ sram_sp_cell 
* No parameters

xbitcell_0_180 
+ bl[178] br[178] vdd vss vss vnb vpb 
+ sram_sp_cell 
* No parameters

xbitcell_0_181 
+ bl[179] br[179] vdd vss vss vnb vpb 
+ sram_sp_cell 
* No parameters

xbitcell_0_182 
+ bl[180] br[180] vdd vss vss vnb vpb 
+ sram_sp_cell 
* No parameters

xbitcell_0_183 
+ bl[181] br[181] vdd vss vss vnb vpb 
+ sram_sp_cell 
* No parameters

xbitcell_0_184 
+ bl[182] br[182] vdd vss vss vnb vpb 
+ sram_sp_cell 
* No parameters

xbitcell_0_185 
+ bl[183] br[183] vdd vss vss vnb vpb 
+ sram_sp_cell 
* No parameters

xbitcell_0_186 
+ bl[184] br[184] vdd vss vss vnb vpb 
+ sram_sp_cell 
* No parameters

xbitcell_0_187 
+ bl[185] br[185] vdd vss vss vnb vpb 
+ sram_sp_cell 
* No parameters

xbitcell_0_188 
+ bl[186] br[186] vdd vss vss vnb vpb 
+ sram_sp_cell 
* No parameters

xbitcell_0_189 
+ bl[187] br[187] vdd vss vss vnb vpb 
+ sram_sp_cell 
* No parameters

xbitcell_0_190 
+ bl[188] br[188] vdd vss vss vnb vpb 
+ sram_sp_cell 
* No parameters

xbitcell_0_191 
+ bl[189] br[189] vdd vss vss vnb vpb 
+ sram_sp_cell 
* No parameters

xbitcell_0_192 
+ bl[190] br[190] vdd vss vss vnb vpb 
+ sram_sp_cell 
* No parameters

xbitcell_0_193 
+ bl[191] br[191] vdd vss vss vnb vpb 
+ sram_sp_cell 
* No parameters

xbitcell_0_194 
+ bl[192] br[192] vdd vss vss vnb vpb 
+ sram_sp_cell 
* No parameters

xbitcell_0_195 
+ bl[193] br[193] vdd vss vss vnb vpb 
+ sram_sp_cell 
* No parameters

xbitcell_0_196 
+ bl[194] br[194] vdd vss vss vnb vpb 
+ sram_sp_cell 
* No parameters

xbitcell_0_197 
+ bl[195] br[195] vdd vss vss vnb vpb 
+ sram_sp_cell 
* No parameters

xbitcell_0_198 
+ bl[196] br[196] vdd vss vss vnb vpb 
+ sram_sp_cell 
* No parameters

xbitcell_0_199 
+ bl[197] br[197] vdd vss vss vnb vpb 
+ sram_sp_cell 
* No parameters

xbitcell_0_200 
+ bl[198] br[198] vdd vss vss vnb vpb 
+ sram_sp_cell 
* No parameters

xbitcell_0_201 
+ bl[199] br[199] vdd vss vss vnb vpb 
+ sram_sp_cell 
* No parameters

xbitcell_0_202 
+ bl[200] br[200] vdd vss vss vnb vpb 
+ sram_sp_cell 
* No parameters

xbitcell_0_203 
+ bl[201] br[201] vdd vss vss vnb vpb 
+ sram_sp_cell 
* No parameters

xbitcell_0_204 
+ bl[202] br[202] vdd vss vss vnb vpb 
+ sram_sp_cell 
* No parameters

xbitcell_0_205 
+ bl[203] br[203] vdd vss vss vnb vpb 
+ sram_sp_cell 
* No parameters

xbitcell_0_206 
+ bl[204] br[204] vdd vss vss vnb vpb 
+ sram_sp_cell 
* No parameters

xbitcell_0_207 
+ bl[205] br[205] vdd vss vss vnb vpb 
+ sram_sp_cell 
* No parameters

xbitcell_0_208 
+ bl[206] br[206] vdd vss vss vnb vpb 
+ sram_sp_cell 
* No parameters

xbitcell_0_209 
+ bl[207] br[207] vdd vss vss vnb vpb 
+ sram_sp_cell 
* No parameters

xbitcell_0_210 
+ bl[208] br[208] vdd vss vss vnb vpb 
+ sram_sp_cell 
* No parameters

xbitcell_0_211 
+ bl[209] br[209] vdd vss vss vnb vpb 
+ sram_sp_cell 
* No parameters

xbitcell_0_212 
+ bl[210] br[210] vdd vss vss vnb vpb 
+ sram_sp_cell 
* No parameters

xbitcell_0_213 
+ bl[211] br[211] vdd vss vss vnb vpb 
+ sram_sp_cell 
* No parameters

xbitcell_0_214 
+ bl[212] br[212] vdd vss vss vnb vpb 
+ sram_sp_cell 
* No parameters

xbitcell_0_215 
+ bl[213] br[213] vdd vss vss vnb vpb 
+ sram_sp_cell 
* No parameters

xbitcell_0_216 
+ bl[214] br[214] vdd vss vss vnb vpb 
+ sram_sp_cell 
* No parameters

xbitcell_0_217 
+ bl[215] br[215] vdd vss vss vnb vpb 
+ sram_sp_cell 
* No parameters

xbitcell_0_218 
+ bl[216] br[216] vdd vss vss vnb vpb 
+ sram_sp_cell 
* No parameters

xbitcell_0_219 
+ bl[217] br[217] vdd vss vss vnb vpb 
+ sram_sp_cell 
* No parameters

xbitcell_0_220 
+ bl[218] br[218] vdd vss vss vnb vpb 
+ sram_sp_cell 
* No parameters

xbitcell_0_221 
+ bl[219] br[219] vdd vss vss vnb vpb 
+ sram_sp_cell 
* No parameters

xbitcell_0_222 
+ bl[220] br[220] vdd vss vss vnb vpb 
+ sram_sp_cell 
* No parameters

xbitcell_0_223 
+ bl[221] br[221] vdd vss vss vnb vpb 
+ sram_sp_cell 
* No parameters

xbitcell_0_224 
+ bl[222] br[222] vdd vss vss vnb vpb 
+ sram_sp_cell 
* No parameters

xbitcell_0_225 
+ bl[223] br[223] vdd vss vss vnb vpb 
+ sram_sp_cell 
* No parameters

xbitcell_0_226 
+ bl[224] br[224] vdd vss vss vnb vpb 
+ sram_sp_cell 
* No parameters

xbitcell_0_227 
+ bl[225] br[225] vdd vss vss vnb vpb 
+ sram_sp_cell 
* No parameters

xbitcell_0_228 
+ bl[226] br[226] vdd vss vss vnb vpb 
+ sram_sp_cell 
* No parameters

xbitcell_0_229 
+ bl[227] br[227] vdd vss vss vnb vpb 
+ sram_sp_cell 
* No parameters
